
#######################################################################
#
#                 Cambridge Crystallographic Data Centre
#                                CCDC 
#
#######################################################################
#
# If this CIF has been generated from an entry in the Cambridge 
# Structural Database, then it will include bibliographic, chemical, 
# crystal, experimental, refinement or atomic coordinate data resulting 
# from the CCDC's data processing and validation procedures.
#
#######################################################################

data_230409lu_lgpz062410_0m
_chemical_formula_moiety         'C18 H12 Ga2 N6 O12 S3,4(H2 O1),C3 H7 N1 O1'
_symmetry_cell_setting           monoclinic
_symmetry_space_group_name_H-M   'C 2/m'
_symmetry_Int_Tables_number      12
_space_group_name_Hall           '-C 2y'
loop_
_symmetry_equiv_pos_site_id
_symmetry_equiv_pos_as_xyz
1 x,y,z
2 -x,y,-z
3 1/2+x,1/2+y,z
4 1/2-x,1/2+y,-z
5 -x,-y,-z
6 x,-y,z
7 1/2-x,1/2-y,-z
8 1/2+x,1/2-y,z
_cell_length_a                   33.4378(16)
_cell_length_b                   24.0415(9)
_cell_length_c                   16.8860(8)
_cell_angle_alpha                90
_cell_angle_beta                 108.667(3)
_cell_angle_gamma                90
_cell_volume                     12860.5
_exptl_crystal_description       block
_cell_formula_units_Z            8
loop_
_atom_site_label
_atom_site_type_symbol
_atom_site_fract_x
_atom_site_fract_y
_atom_site_fract_z
Ga1 Ga 0.32588(3) 0.69729(4) 0.62080(6)
Ga2 Ga 0.62192(3) 0.70584(4) 0.90949(7)
S2 S 0.33745(10) 0.500000 0.68462(19)
S4 S 0.61434(10) 0.500000 0.94116(19)
S1 S 0.32796(7) 0.68738(9) 0.33217(13)
S3 S 0.47475(7) 0.73931(9) 0.74695(14)
O12 O 0.33832(16) 0.6193(2) 0.6532(3)
O2 O 0.26520(16) 0.6885(2) 0.5649(3)
O11 O 0.31783(18) 0.7008(2) 0.7291(3)
O1 O 0.32819(18) 0.6831(2) 0.5071(3)
O5 O 0.32234(17) 0.7783(2) 0.6091(3)
O10 O 0.61379(17) 0.6244(2) 0.9104(3)
O6 O 0.38683(17) 0.7139(2) 0.6614(3)
O4 O 0.35863(17) 0.6969(2) 0.1887(3)
O7 O 0.56295(16) 0.7187(3) 0.8368(3)
O9 O 0.60850(18) 0.6993(3) 1.0137(3)
O3 O 0.31722(17) 0.7038(2) 0.0299(3)
O8 O 0.62330(18) 0.7856(2) 0.9137(4)
N6 N 0.3199(2) 0.6502(3) 0.7616(4)
H6 H 0.314975 0.644359 0.809095
N1 N 0.2576(2) 0.6864(2) 0.4793(4)
H1 H 0.231732 0.686354 0.443843
N5 N 0.5987(2) 0.6467(3) 1.0277(4)
H5 H 0.590852 0.638135 1.071276
N4 N 0.5835(2) 0.8062(3) 0.8688(5)
H4 H 0.578863 0.842262 0.865939
N3 N 0.3621(2) 0.7998(3) 0.6425(4)
H3 H 0.366328 0.835994 0.645953
N2 N 0.2946(2) 0.6969(3) 0.0865(4)
H2 H 0.266887 0.693775 0.070128
C7 C 0.3940(3) 0.7644(4) 0.6697(5)
C2 C 0.2834(3) 0.6854(3) 0.3628(5)
C1 C 0.2912(3) 0.6846(3) 0.4527(6)
C17 C 0.3299(3) 0.5509(3) 0.7505(5)
C12 C 0.5540(3) 0.7725(4) 0.8319(5)
C16 C 0.3293(2) 0.6098(4) 0.7204(5)
C13 C 0.6013(3) 0.6081(4) 0.9729(5)
C8 C 0.4364(3) 0.7884(4) 0.7086(5)
C11 C 0.5110(3) 0.7897(3) 0.7848(6)
C6 C 0.3178(3) 0.6954(3) 0.1654(6)
C3 C 0.2481(3) 0.6868(4) 0.2962(6)
H3A H 0.220501 0.685088 0.300395
C5 C 0.2973(3) 0.6906(3) 0.2310(5)
C18 C 0.3227(3) 0.5293(3) 0.8190(6)
H18 H 0.318073 0.551236 0.862028
C14 C 0.5934(3) 0.5501(4) 0.9852(5)
C9 C 0.4527(4) 0.8412(4) 0.7280(7)
H9 H 0.436331 0.874159 0.712786
C15 C 0.5682(3) 0.5298(4) 1.0283(6)
H15 H 0.552791 0.552194 1.054722
C4 C 0.2561(3) 0.6910(4) 0.2217(6)
H4A H 0.234575 0.693776 0.169074
C10 C 0.4964(4) 0.8412(4) 0.7727(7)
H10 H 0.512919 0.873690 0.791474
O12_2 O 0.33832(16) 0.3807(2) 0.6532(3)
O11_2 O 0.31783(18) 0.2992(2) 0.7291(3)
N6_2 N 0.3199(2) 0.3498(3) 0.7616(4)
H6_2 H 0.314975 0.355641 0.809095
C17_2 C 0.3299(3) 0.4491(3) 0.7505(5)
C16_2 C 0.3293(2) 0.3902(4) 0.7204(5)
C18_2 C 0.3227(3) 0.4707(3) 0.8190(6)
H18_2 H 0.318073 0.448764 0.862028
O10_2 O 0.61379(17) 0.3756(2) 0.9104(3)
O9_2 O 0.60850(18) 0.3007(3) 1.0137(3)
N5_2 N 0.5987(2) 0.3533(3) 1.0277(4)
H5_2 H 0.590852 0.361865 1.071276
C13_2 C 0.6013(3) 0.3919(4) 0.9729(5)
C14_2 C 0.5934(3) 0.4499(4) 0.9852(5)
C15_2 C 0.5682(3) 0.4702(4) 1.0283(6)
H15_2 H 0.552791 0.447806 1.054722
Ga1_2 Ga 0.67412(3) 0.69729(4) 0.37920(6)
Ga2_2 Ga 0.37808(3) 0.70584(4) 0.09051(7)
S2_2 S 0.66255(10) 0.500000 0.31538(19)
S4_2 S 0.38566(10) 0.500000 0.05884(19)
S1_2 S 0.67204(7) 0.68738(9) 0.66783(13)
S3_2 S 0.52525(7) 0.73931(9) 0.25305(14)
O12_3 O 0.66168(16) 0.6193(2) 0.3468(3)
O2_2 O 0.73480(16) 0.6885(2) 0.4351(3)
O11_3 O 0.68217(18) 0.7008(2) 0.2709(3)
O1_2 O 0.67181(18) 0.6831(2) 0.4929(3)
O5_2 O 0.67766(17) 0.7783(2) 0.3909(3)
O10_3 O 0.38621(17) 0.6244(2) 0.0896(3)
O6_2 O 0.61317(17) 0.7139(2) 0.3386(3)
O4_2 O 0.64137(17) 0.6969(2) 0.8113(3)
O7_2 O 0.43705(16) 0.7187(3) 0.1632(3)
O9_3 O 0.39150(18) 0.6993(3) -0.0137(3)
O3_2 O 0.68278(17) 0.7038(2) 0.9701(3)
O8_2 O 0.37670(18) 0.7856(2) 0.0863(4)
N6_3 N 0.6801(2) 0.6502(3) 0.2384(4)
H6_3 H 0.685025 0.644359 0.190905
N1_2 N 0.7424(2) 0.6864(2) 0.5207(4)
H1_2 H 0.768268 0.686354 0.556157
N5_3 N 0.4013(2) 0.6467(3) -0.0277(4)
H5_3 H 0.409148 0.638135 -0.071276
N4_2 N 0.4165(2) 0.8062(3) 0.1312(5)
H4_2 H 0.421137 0.842262 0.134061
N3_2 N 0.6379(2) 0.7998(3) 0.3575(4)
H3_2 H 0.633672 0.835994 0.354047
N2_2 N 0.7054(2) 0.6969(3) 0.9135(4)
H2_2 H 0.733113 0.693775 0.929872
C7_2 C 0.6060(3) 0.7644(4) 0.3303(5)
C2_2 C 0.7166(3) 0.6854(3) 0.6372(5)
C1_2 C 0.7088(3) 0.6846(3) 0.5473(6)
C17_3 C 0.6701(3) 0.5509(3) 0.2495(5)
C12_2 C 0.4460(3) 0.7725(4) 0.1681(5)
C16_3 C 0.6707(2) 0.6098(4) 0.2796(5)
C13_3 C 0.3987(3) 0.6081(4) 0.0271(5)
C8_2 C 0.5636(3) 0.7884(4) 0.2914(5)
C11_2 C 0.4890(3) 0.7897(3) 0.2152(6)
C6_2 C 0.6822(3) 0.6954(3) 0.8346(6)
C3_2 C 0.7519(3) 0.6868(4) 0.7038(6)
H3A_2 H 0.779499 0.685088 0.699605
C5_2 C 0.7027(3) 0.6906(3) 0.7690(5)
C18_3 C 0.6773(3) 0.5293(3) 0.1810(6)
H18_3 H 0.681927 0.551236 0.137972
C14_3 C 0.4066(3) 0.5501(4) 0.0148(5)
C9_2 C 0.5473(4) 0.8412(4) 0.2720(7)
H9_2 H 0.563669 0.874159 0.287214
C15_3 C 0.4318(3) 0.5298(4) -0.0283(6)
H15_3 H 0.447209 0.552194 -0.054722
C4_2 C 0.7439(3) 0.6910(4) 0.7783(6)
H4A_2 H 0.765425 0.693776 0.830926
C10_2 C 0.5036(4) 0.8412(4) 0.2273(7)
H10_2 H 0.487081 0.873690 0.208526
O12_4 O 0.66168(16) 0.3807(2) 0.3468(3)
O11_4 O 0.68217(18) 0.2992(2) 0.2709(3)
N6_4 N 0.6801(2) 0.3498(3) 0.2384(4)
H6_4 H 0.685025 0.355641 0.190905
C17_4 C 0.6701(3) 0.4491(3) 0.2495(5)
C16_4 C 0.6707(2) 0.3902(4) 0.2796(5)
C18_4 C 0.6773(3) 0.4707(3) 0.1810(6)
H18_4 H 0.681927 0.448764 0.137972
O10_4 O 0.38621(17) 0.3756(2) 0.0896(3)
O9_4 O 0.39150(18) 0.3007(3) -0.0137(3)
N5_4 N 0.4013(2) 0.3533(3) -0.0277(4)
H5_4 H 0.409148 0.361865 -0.071276
C13_4 C 0.3987(3) 0.3919(4) 0.0271(5)
C14_4 C 0.4066(3) 0.4499(4) 0.0148(5)
C15_4 C 0.4318(3) 0.4702(4) -0.0283(6)
H15_4 H 0.447209 0.447806 -0.054722
Ga1_3 Ga 0.67412(3) 0.30271(4) 0.37920(6)
Ga2_3 Ga 0.37808(3) 0.29416(4) 0.09051(7)
S1_3 S 0.67204(7) 0.31262(9) 0.66783(13)
S3_3 S 0.52525(7) 0.26069(9) 0.25305(14)
O2_3 O 0.73480(16) 0.3115(2) 0.4351(3)
O1_3 O 0.67181(18) 0.3169(2) 0.4929(3)
O5_3 O 0.67766(17) 0.2217(2) 0.3909(3)
O6_3 O 0.61317(17) 0.2861(2) 0.3386(3)
O4_3 O 0.64137(17) 0.3031(2) 0.8113(3)
O7_3 O 0.43705(16) 0.2813(3) 0.1632(3)
O3_3 O 0.68278(17) 0.2962(2) 0.9701(3)
O8_3 O 0.37670(18) 0.2144(2) 0.0863(4)
N1_3 N 0.7424(2) 0.3136(2) 0.5207(4)
H1_3 H 0.768268 0.313646 0.556157
N4_3 N 0.4165(2) 0.1938(3) 0.1312(5)
H4_3 H 0.421137 0.157738 0.134061
N3_3 N 0.6379(2) 0.2002(3) 0.3575(4)
H3_3 H 0.633672 0.164006 0.354047
N2_3 N 0.7054(2) 0.3031(3) 0.9135(4)
H2_3 H 0.733113 0.306225 0.929872
C7_3 C 0.6060(3) 0.2356(4) 0.3303(5)
C2_3 C 0.7166(3) 0.3146(3) 0.6372(5)
C1_3 C 0.7088(3) 0.3154(3) 0.5473(6)
C12_3 C 0.4460(3) 0.2275(4) 0.1681(5)
C8_3 C 0.5636(3) 0.2116(4) 0.2914(5)
C11_3 C 0.4890(3) 0.2103(3) 0.2152(6)
C6_3 C 0.6822(3) 0.3046(3) 0.8346(6)
C3_3 C 0.7519(3) 0.3132(4) 0.7038(6)
H3A_3 H 0.779499 0.314912 0.699605
C5_3 C 0.7027(3) 0.3094(3) 0.7690(5)
C9_3 C 0.5473(4) 0.1588(4) 0.2720(7)
H9_3 H 0.563669 0.125841 0.287214
C4_3 C 0.7439(3) 0.3090(4) 0.7783(6)
H4A_3 H 0.765425 0.306224 0.830926
C10_3 C 0.5036(4) 0.1588(4) 0.2273(7)
H10_3 H 0.487081 0.126310 0.208526
Ga1_4 Ga 0.32588(3) 0.30271(4) 0.62080(6)
Ga2_4 Ga 0.62192(3) 0.29416(4) 0.90949(7)
S1_4 S 0.32796(7) 0.31262(9) 0.33217(13)
S3_4 S 0.47475(7) 0.26069(9) 0.74695(14)
O2_4 O 0.26520(16) 0.3115(2) 0.5649(3)
O1_4 O 0.32819(18) 0.3169(2) 0.5071(3)
O5_4 O 0.32234(17) 0.2217(2) 0.6091(3)
O6_4 O 0.38683(17) 0.2861(2) 0.6614(3)
O4_4 O 0.35863(17) 0.3031(2) 0.1887(3)
O7_4 O 0.56295(16) 0.2813(3) 0.8368(3)
O3_4 O 0.31722(17) 0.2962(2) 0.0299(3)
O8_4 O 0.62330(18) 0.2144(2) 0.9137(4)
N1_4 N 0.2576(2) 0.3136(2) 0.4793(4)
H1_4 H 0.231732 0.313646 0.443843
N4_4 N 0.5835(2) 0.1938(3) 0.8688(5)
H4_4 H 0.578863 0.157738 0.865939
N3_4 N 0.3621(2) 0.2002(3) 0.6425(4)
H3_4 H 0.366328 0.164006 0.645953
N2_4 N 0.2946(2) 0.3031(3) 0.0865(4)
H2_4 H 0.266887 0.306225 0.070128
C7_4 C 0.3940(3) 0.2356(4) 0.6697(5)
C2_4 C 0.2834(3) 0.3146(3) 0.3628(5)
C1_4 C 0.2912(3) 0.3154(3) 0.4527(6)
C12_4 C 0.5540(3) 0.2275(4) 0.8319(5)
C8_4 C 0.4364(3) 0.2116(4) 0.7086(5)
C11_4 C 0.5110(3) 0.2103(3) 0.7848(6)
C6_4 C 0.3178(3) 0.3046(3) 0.1654(6)
C3_4 C 0.2481(3) 0.3132(4) 0.2962(6)
H3A_4 H 0.220501 0.314912 0.300395
C5_4 C 0.2973(3) 0.3094(3) 0.2310(5)
C9_4 C 0.4527(4) 0.1588(4) 0.7280(7)
H9_4 H 0.436331 0.125841 0.712786
C4_4 C 0.2561(3) 0.3090(4) 0.2217(6)
H4A_4 H 0.234575 0.306224 0.169074
C10_4 C 0.4964(4) 0.1588(4) 0.7727(7)
H10_4 H 0.512919 0.126310 0.791474
loop_
_geom_bond_atom_site_label_1
_geom_bond_atom_site_label_2
_geom_bond_site_symmetry_1
_geom_bond_site_symmetry_2
Ga1 O12 1_555 1_555
Ga1 O2 1_555 1_555
Ga1 O11 1_555 1_555
Ga1 O1 1_555 1_555
Ga1 O5 1_555 1_555
Ga1 O6 1_555 1_555
Ga2 O10 1_555 1_555
Ga2 O7 1_555 1_555
Ga2 O9 1_555 1_555
Ga2 O8 1_555 1_555
Ga2 O4_2 1_555 1_555
Ga2 O3_2 1_555 1_555
S2 C17 1_555 1_555
S2 C17_2 1_555 1_555
S4 C14 1_555 1_555
S4 C14_2 1_555 1_555
S1 C2 1_555 1_555
S1 C5 1_555 1_555
S3 C8 1_555 1_555
S3 C11 1_555 1_555
O12 C16 1_555 1_555
O2 N1 1_555 1_555
O11 N6 1_555 1_555
O1 C1 1_555 1_555
O5 N3 1_555 1_555
O10 C13 1_555 1_555
O6 C7 1_555 1_555
O4 C6 1_555 1_555
O4 Ga2_2 1_555 1_555
O7 C12 1_555 1_555
O9 N5 1_555 1_555
O3 N2 1_555 1_555
O3 Ga2_2 1_555 1_555
O8 N4 1_555 1_555
N6 H6 1_555 1_555
N6 C16 1_555 1_555
N1 H1 1_555 1_555
N1 C1 1_555 1_555
N5 H5 1_555 1_555
N5 C13 1_555 1_555
N4 H4 1_555 1_555
N4 C12 1_555 1_555
N3 H3 1_555 1_555
N3 C7 1_555 1_555
N2 H2 1_555 1_555
N2 C6 1_555 1_555
C7 C8 1_555 1_555
C2 C1 1_555 1_555
C2 C3 1_555 1_555
C17 C16 1_555 1_555
C17 C18 1_555 1_555
C12 C11 1_555 1_555
C13 C14 1_555 1_555
C8 C9 1_555 1_555
C11 C10 1_555 1_555
C6 C5 1_555 1_555
C3 H3A 1_555 1_555
C3 C4 1_555 1_555
C5 C4 1_555 1_555
C18 H18 1_555 1_555
C18 C18_2 1_555 1_555
C14 C15 1_555 1_555
C9 H9 1_555 1_555
C9 C10 1_555 1_555
C15 H15 1_555 1_555
C15 C15_2 1_555 1_555
C4 H4A 1_555 1_555
C10 H10 1_555 1_555
O12_2 C16_2 1_555 1_555
O12_2 Ga1_4 1_555 1_555
O11_2 N6_2 1_555 1_555
O11_2 Ga1_4 1_555 1_555
N6_2 H6_2 1_555 1_555
N6_2 C16_2 1_555 1_555
C17_2 C16_2 1_555 1_555
C17_2 C18_2 1_555 1_555
C18_2 H18_2 1_555 1_555
O10_2 C13_2 1_555 1_555
O10_2 Ga2_4 1_555 1_555
O9_2 N5_2 1_555 1_555
O9_2 Ga2_4 1_555 1_555
N5_2 H5_2 1_555 1_555
N5_2 C13_2 1_555 1_555
C13_2 C14_2 1_555 1_555
C14_2 C15_2 1_555 1_555
C15_2 H15_2 1_555 1_555
Ga1_2 O12_3 1_555 1_555
Ga1_2 O2_2 1_555 1_555
Ga1_2 O11_3 1_555 1_555
Ga1_2 O1_2 1_555 1_555
Ga1_2 O5_2 1_555 1_555
Ga1_2 O6_2 1_555 1_555
Ga2_2 O10_3 1_555 1_555
Ga2_2 O7_2 1_555 1_555
Ga2_2 O9_3 1_555 1_555
Ga2_2 O8_2 1_555 1_555
S2_2 C17_3 1_555 1_555
S2_2 C17_4 1_555 1_555
S4_2 C14_3 1_555 1_555
S4_2 C14_4 1_555 1_555
S1_2 C2_2 1_555 1_555
S1_2 C5_2 1_555 1_555
S3_2 C8_2 1_555 1_555
S3_2 C11_2 1_555 1_555
O12_3 C16_3 1_555 1_555
O2_2 N1_2 1_555 1_555
O11_3 N6_3 1_555 1_555
O1_2 C1_2 1_555 1_555
O5_2 N3_2 1_555 1_555
O10_3 C13_3 1_555 1_555
O6_2 C7_2 1_555 1_555
O4_2 C6_2 1_555 1_555
O7_2 C12_2 1_555 1_555
O9_3 N5_3 1_555 1_555
O3_2 N2_2 1_555 1_555
O8_2 N4_2 1_555 1_555
N6_3 H6_3 1_555 1_555
N6_3 C16_3 1_555 1_555
N1_2 H1_2 1_555 1_555
N1_2 C1_2 1_555 1_555
N5_3 H5_3 1_555 1_555
N5_3 C13_3 1_555 1_555
N4_2 H4_2 1_555 1_555
N4_2 C12_2 1_555 1_555
N3_2 H3_2 1_555 1_555
N3_2 C7_2 1_555 1_555
N2_2 H2_2 1_555 1_555
N2_2 C6_2 1_555 1_555
C7_2 C8_2 1_555 1_555
C2_2 C1_2 1_555 1_555
C2_2 C3_2 1_555 1_555
C17_3 C16_3 1_555 1_555
C17_3 C18_3 1_555 1_555
C12_2 C11_2 1_555 1_555
C13_3 C14_3 1_555 1_555
C8_2 C9_2 1_555 1_555
C11_2 C10_2 1_555 1_555
C6_2 C5_2 1_555 1_555
C3_2 H3A_2 1_555 1_555
C3_2 C4_2 1_555 1_555
C5_2 C4_2 1_555 1_555
C18_3 H18_3 1_555 1_555
C18_3 C18_4 1_555 1_555
C14_3 C15_3 1_555 1_555
C9_2 H9_2 1_555 1_555
C9_2 C10_2 1_555 1_555
C15_3 H15_3 1_555 1_555
C15_3 C15_4 1_555 1_555
C4_2 H4A_2 1_555 1_555
C10_2 H10_2 1_555 1_555
O12_4 C16_4 1_555 1_555
O12_4 Ga1_3 1_555 1_555
O11_4 N6_4 1_555 1_555
O11_4 Ga1_3 1_555 1_555
N6_4 H6_4 1_555 1_555
N6_4 C16_4 1_555 1_555
C17_4 C16_4 1_555 1_555
C17_4 C18_4 1_555 1_555
C18_4 H18_4 1_555 1_555
O10_4 C13_4 1_555 1_555
O10_4 Ga2_3 1_555 1_555
O9_4 N5_4 1_555 1_555
O9_4 Ga2_3 1_555 1_555
N5_4 H5_4 1_555 1_555
N5_4 C13_4 1_555 1_555
C13_4 C14_4 1_555 1_555
C14_4 C15_4 1_555 1_555
C15_4 H15_4 1_555 1_555
Ga1_3 O2_3 1_555 1_555
Ga1_3 O1_3 1_555 1_555
Ga1_3 O5_3 1_555 1_555
Ga1_3 O6_3 1_555 1_555
Ga2_3 O7_3 1_555 1_555
Ga2_3 O8_3 1_555 1_555
Ga2_3 O4_4 1_555 1_555
Ga2_3 O3_4 1_555 1_555
S1_3 C2_3 1_555 1_555
S1_3 C5_3 1_555 1_555
S3_3 C8_3 1_555 1_555
S3_3 C11_3 1_555 1_555
O2_3 N1_3 1_555 1_555
O1_3 C1_3 1_555 1_555
O5_3 N3_3 1_555 1_555
O6_3 C7_3 1_555 1_555
O4_3 C6_3 1_555 1_555
O4_3 Ga2_4 1_555 1_555
O7_3 C12_3 1_555 1_555
O3_3 N2_3 1_555 1_555
O3_3 Ga2_4 1_555 1_555
O8_3 N4_3 1_555 1_555
N1_3 H1_3 1_555 1_555
N1_3 C1_3 1_555 1_555
N4_3 H4_3 1_555 1_555
N4_3 C12_3 1_555 1_555
N3_3 H3_3 1_555 1_555
N3_3 C7_3 1_555 1_555
N2_3 H2_3 1_555 1_555
N2_3 C6_3 1_555 1_555
C7_3 C8_3 1_555 1_555
C2_3 C1_3 1_555 1_555
C2_3 C3_3 1_555 1_555
C12_3 C11_3 1_555 1_555
C8_3 C9_3 1_555 1_555
C11_3 C10_3 1_555 1_555
C6_3 C5_3 1_555 1_555
C3_3 H3A_3 1_555 1_555
C3_3 C4_3 1_555 1_555
C5_3 C4_3 1_555 1_555
C9_3 H9_3 1_555 1_555
C9_3 C10_3 1_555 1_555
C4_3 H4A_3 1_555 1_555
C10_3 H10_3 1_555 1_555
Ga1_4 O2_4 1_555 1_555
Ga1_4 O1_4 1_555 1_555
Ga1_4 O5_4 1_555 1_555
Ga1_4 O6_4 1_555 1_555
Ga2_4 O7_4 1_555 1_555
Ga2_4 O8_4 1_555 1_555
S1_4 C2_4 1_555 1_555
S1_4 C5_4 1_555 1_555
S3_4 C8_4 1_555 1_555
S3_4 C11_4 1_555 1_555
O2_4 N1_4 1_555 1_555
O1_4 C1_4 1_555 1_555
O5_4 N3_4 1_555 1_555
O6_4 C7_4 1_555 1_555
O4_4 C6_4 1_555 1_555
O7_4 C12_4 1_555 1_555
O3_4 N2_4 1_555 1_555
O8_4 N4_4 1_555 1_555
N1_4 H1_4 1_555 1_555
N1_4 C1_4 1_555 1_555
N4_4 H4_4 1_555 1_555
N4_4 C12_4 1_555 1_555
N3_4 H3_4 1_555 1_555
N3_4 C7_4 1_555 1_555
N2_4 H2_4 1_555 1_555
N2_4 C6_4 1_555 1_555
C7_4 C8_4 1_555 1_555
C2_4 C1_4 1_555 1_555
C2_4 C3_4 1_555 1_555
C12_4 C11_4 1_555 1_555
C8_4 C9_4 1_555 1_555
C11_4 C10_4 1_555 1_555
C6_4 C5_4 1_555 1_555
C3_4 H3A_4 1_555 1_555
C3_4 C4_4 1_555 1_555
C5_4 C4_4 1_555 1_555
C9_4 H9_4 1_555 1_555
C9_4 C10_4 1_555 1_555
C4_4 H4A_4 1_555 1_555
C10_4 H10_4 1_555 1_555

#END
